FoamFile { format ascii; class polyBoundaryMesh; object boundary; }
3
(
inlet
{
    type patch;
    nFaces 100;
    startFace 0;
}
outlet
{
    type patch;
    nFaces 100;
    startFace 100;
}
walls
{
    type wall;
    nFaces 400;
    startFace 200;
}
)
