FoamFile { format ascii; class dictionary; object fvSchemes; }
gradSchemes { default Gauss linear; }
divSchemes { default none; div(phi,U) bounded Gauss linearUpwind grad(U); }
laplacianSchemes { default Gauss linear corrected; }
interpolationSchemes { default linear; }
snGradSchemes { default corrected; }
